/*--------------------------------*- C++ -*----------------------------------*\
| =========                 |                                                 |
| \\      /  F ield         | OpenFOAM: The Open Source CFD Toolbox           |
|  \\    /   O peration     | Version:  2406                                  |
|   \\  /    A nd           | Website:  www.openfoam.com                      |
|    \\/     M anipulation  |                                                 |
\*---------------------------------------------------------------------------*/
FoamFile
{
    version     2.0;
    format      binary;
    arch        "LSB;label=32;scalar=64";
    class       volVectorField;
    location    "0";
    object      U;
}
// * * * * * * * * * * * * * * * * * * * * * * * * * * * * * * * * * * * * * //

dimensions      [0 1 -1 0 0 0 0];

internalField   uniform (0 0 0);

boundaryField
{
    left
    {
        type            pressureInletOutletVelocity;
        value           uniform (0 0 0);
    }
    right
    {
        type            pressureInletOutletVelocity;
        value           uniform (0 0 0);
    }
    front
    {
        type            pressureInletOutletVelocity;
        value           uniform (0 0 0);
    }
    back
    {
        type            pressureInletOutletVelocity;
        value           uniform (0 0 0);
    }
    top
    {
        type            pressureInletOutletVelocity;
        value           uniform (0 0 0);
    }
    bottom
    {
        type            noSlip;
    }
    bunkering-boat_m
    {
        type            noSlip;
    }
    bunkering-quay_m
    {
        type            noSlip;
    }
    nozzle
    {
        type            uniformFixedValue;
        uniformValue    table;
        uniformValueCoeffs
        {
            values          
3
(
(0 (0 0 0))
(0.01 (0 0 800))
(100 (0 0 800))
)
;
        }
        value           uniform (0 0 0);
    }
    nozzle_holder_wall
    {
        type            noSlip;
    }
}


// ************************************************************************* //
