/*--------------------------------*- C++ -*----------------------------------*\
| =========                 |                                                 |
| \\      /  F ield         | OpenFOAM: The Open Source CFD Toolbox           |
|  \\    /   O peration     | Version:  2406                                  |
|   \\  /    A nd           | Website:  www.openfoam.com                      |
|    \\/     M anipulation  |                                                 |
\*---------------------------------------------------------------------------*/
FoamFile
{
    version     2.0;
    format      binary;
    arch        "LSB;label=32;scalar=64";
    class       polyBoundaryMesh;
    location    "constant/polyMesh";
    object      boundary;
}
// * * * * * * * * * * * * * * * * * * * * * * * * * * * * * * * * * * * * * //

10
(
    left
    {
        type            patch;
        nFaces          2993;
        startFace       1228887;
    }
    right
    {
        type            patch;
        nFaces          2996;
        startFace       1231880;
    }
    front
    {
        type            patch;
        nFaces          3485;
        startFace       1234876;
    }
    back
    {
        type            patch;
        nFaces          3740;
        startFace       1238361;
    }
    top
    {
        type            patch;
        nFaces          6130;
        startFace       1242101;
    }
    bottom
    {
        type            wall;
        inGroups        1(wall);
        nFaces          2557;
        startFace       1248231;
    }
    bunkering-boat_m
    {
        type            wall;
        inGroups        1(wall);
        nFaces          24014;
        startFace       1250788;
    }
    bunkering-quay_m
    {
        type            wall;
        inGroups        1(wall);
        nFaces          18164;
        startFace       1274802;
    }
    nozzle
    {
        type            patch;
        nFaces          24;
        startFace       1292966;
    }
    nozzle_holder_wall
    {
        type            wall;
        inGroups        1(wall);
        nFaces          1798;
        startFace       1292990;
    }
)

// ************************************************************************* //
