/*--------------------------------*- C++ -*----------------------------------*\
| =========                 |                                                 |
| \\      /  F ield         | OpenFOAM: The Open Source CFD Toolbox           |
|  \\    /   O peration     | Version:  2406                                  |
|   \\  /    A nd           | Website:  www.openfoam.com                      |
|    \\/     M anipulation  |                                                 |
\*---------------------------------------------------------------------------*/
FoamFile
{
    version     2.0;
    format      binary;
    arch        "LSB;label=32;scalar=64";
    class       polyBoundaryMesh;
    location    "constant/polyMesh";
    object      boundary;
}
// * * * * * * * * * * * * * * * * * * * * * * * * * * * * * * * * * * * * * //

10
(
    left
    {
        type            patch;
        nFaces          3031;
        startFace       1144995;
    }
    right
    {
        type            patch;
        nFaces          3034;
        startFace       1148026;
    }
    front
    {
        type            patch;
        nFaces          3570;
        startFace       1151060;
    }
    back
    {
        type            patch;
        nFaces          3740;
        startFace       1154630;
    }
    top
    {
        type            patch;
        nFaces          6070;
        startFace       1158370;
    }
    bottom
    {
        type            wall;
        inGroups        1(wall);
        nFaces          2548;
        startFace       1164440;
    }
    bunkering-boat_m
    {
        type            wall;
        inGroups        1(wall);
        nFaces          22162;
        startFace       1166988;
    }
    bunkering-quay_m
    {
        type            wall;
        inGroups        1(wall);
        nFaces          18733;
        startFace       1189150;
    }
    nozzle
    {
        type            patch;
        nFaces          28;
        startFace       1207883;
    }
    nozzle_holder_wall
    {
        type            wall;
        inGroups        1(wall);
        nFaces          3034;
        startFace       1207911;
    }
)

// ************************************************************************* //
