/*--------------------------------*- C++ -*----------------------------------*\
| =========                 |                                                 |
| \\      /  F ield         | OpenFOAM: The Open Source CFD Toolbox           |
|  \\    /   O peration     | Version:  v2406                                 |
|   \\  /    A nd           | Website:  www.openfoam.com                      |
|    \\/     M anipulation  |                                                 |
\*---------------------------------------------------------------------------*/
FoamFile
{
    version     2.0;
    format      ascii;
    class       volScalarField;
    object      epsilon;
}
// * * * * * * * * * * * * * * * * * * * * * * * * * * * * * * * * * * * * * //

dimensions      [0 2 -3 0 0 0 0];
internalField   uniform 2.0e-7;

boundaryField
{
    right               { type inletOutlet; inletValue $internalField; value $internalField; }
    left                { type inletOutlet; inletValue $internalField; value $internalField; }
    front               { type inletOutlet; inletValue $internalField; value $internalField; }
    back                { type inletOutlet; inletValue $internalField; value $internalField; }
    top                 { type inletOutlet; inletValue $internalField; value $internalField; }
    bottom              { type epsilonWallFunction; value $internalField; }
    bunkering-boat_m    { type epsilonWallFunction; value $internalField; }
    bunkering-quay_m    { type epsilonWallFunction; value $internalField; }
    nozzle_holder_wall  { type epsilonWallFunction; value $internalField; }
    nozzle              { type turbulentMixingLengthDissipationRateInlet; mixingLength 0.01; value $internalField; }
}
// ************************************************************************* //
