/*--------------------------------*- C++ -*----------------------------------*\
| =========                 |                                                 |
| \\      /  F ield         | OpenFOAM: The Open Source CFD Toolbox           |
|  \\    /   O peration     | Version:  2406                                  |
|   \\  /    A nd           | Website:  www.openfoam.com                      |
|    \\/     M anipulation  |                                                 |
\*---------------------------------------------------------------------------*/
FoamFile
{
    version     2.0;
    format      binary;
    arch        "LSB;label=32;scalar=64";
    class       volScalarField;
    location    "0";
    object      T;
}
// * * * * * * * * * * * * * * * * * * * * * * * * * * * * * * * * * * * * * //

dimensions      [0 0 0 1 0 0 0];

internalField   uniform 300;

boundaryField
{
    left
    {
        type            inletOutlet;
        inletValue      uniform 300;
        value           uniform 300;
    }
    right
    {
        type            inletOutlet;
        inletValue      uniform 300;
        value           uniform 300;
    }
    front
    {
        type            inletOutlet;
        inletValue      uniform 300;
        value           uniform 300;
    }
    back
    {
        type            inletOutlet;
        inletValue      uniform 300;
        value           uniform 300;
    }
    top
    {
        type            inletOutlet;
        inletValue      uniform 300;
        value           uniform 300;
    }
    bottom
    {
        type            zeroGradient;
    }
    bunkering-boat_m
    {
        type            zeroGradient;
    }
    bunkering-quay_m
    {
        type            zeroGradient;
    }
    nozzle
    {
        type            fixedValue;
        value           uniform 300;
    }
    nozzle_holder_wall
    {
        type            zeroGradient;
    }
}


// ************************************************************************* //
